examples/feeders/CERTEL/CER3_2_33/Cargas_CER3_2_33.dss
New Load.IP_10011_MOD2 bus=BT_2409_1.1 phases=1 conn=Wye kv=0.22 kw=0.043 pf=0.92 Daily=cc38_Util Model=2 status=variable vminpu=0.93 vmaxpu=1.1 
New Load.IP_10011_MOD3 bus=BT_2409_1.1 phases=1 conn=Wye kv=0.22 kw=0.043 pf=0.92 Daily=cc38_Util Model=3 status=variable vminpu=0.93 vmaxpu=1.1 

New Load.IP_10060_MOD2 bus=BT_23485_1.3 phases=1 conn=Wye kv=0.219 kw=0.1435 pf=0.92 Daily=cc38_Util Model=2 status=variable vminpu=0.93 vmaxpu=1.1 
New Load.IP_10060_MOD3 bus=BT_23485_1.3 phases=1 conn=Wye kv=0.219 kw=0.1435 pf=0.92 Daily=cc38_Util Model=3 status=variable vminpu=0.93 vmaxpu=1.1 

New Load.IP_10062_MOD2 bus=BT_23489_1.3 phases=1 conn=Wye kv=0.219 kw=0.043 pf=0.92 Daily=cc38_Util Model=2 status=variable vminpu=0.93 vmaxpu=1.1 
New Load.IP_10062_MOD3 bus=BT_23489_1.3 phases=1 conn=Wye kv=0.219 kw=0.043 pf=0.92 Daily=cc38_Util Model=3 status=variable vminpu=0.93 vmaxpu=1.1 

New Load.IP_10064_MOD2 bus=BT_22827_1.1 phases=1 conn=Wye kv=0.22 kw=0.043 pf=0.92 Daily=cc38_Util Model=2 status=variable vminpu=0.93 vmaxpu=1.1 
New Load.IP_10064_MOD3 bus=BT_22827_1.1 phases=1 conn=Wye kv=0.22 kw=0.043 pf=0.92 Daily=cc38_Util Model=3 status=variable vminpu=0.93 vmaxpu=1.1 

New Load.IP_10065_MOD2 bus=BT_31590_1.1 phases=1 conn=Wye kv=0.22 kw=0.125 pf=0.92 Daily=cc38_Util Model=2 status=variable vminpu=0.93 vmaxpu=1.1 
New Load.IP_10065_MOD3 bus=BT_31590_1.1 phases=1 conn=Wye kv=0.22 kw=0.125 pf=0.92 Daily=cc38_Util Model=3 status=variable vminpu=0.93 vmaxpu=1.1 

New Load.IP_10066_MOD2 bus=BT_31586_1.1 phases=1 conn=Wye kv=0.22 kw=0.04 pf=0.92 Daily=cc38_Util Model=2 status=variable vminpu=0.93 vmaxpu=1.1 
New Load.IP_10066_MOD3 bus=BT_31586_1.1 phases=1 conn=Wye kv=0.22 kw=0.04 pf=0.92 Daily=cc38_Util Model=3 status=variable vminpu=0.93 vmaxpu=1.1 

New Load.IP_10164_MOD2 bus=BT_23740_1.2 phases=1 conn=Wye kv=0.219 kw=0.088 pf=0.92 Daily=cc38_Util Model=2 status=variable vminpu=0.93 vmaxpu=1.1 
New Load.IP_10164_MOD3 bus=BT_23740_1.2 phases=1 conn=Wye kv=0.219 kw=0.088 pf=0.92 Daily=cc38_Util Model=3 status=variable vminpu=0.93 vmaxpu=1.1 

New Load.IP_10168_MOD2 bus=BT_34452_1.2 phases=1 conn=Wye kv=0.219 kw=0.088 pf=0.92 Daily=cc38_Util Model=2 status=variable vminpu=0.93 vmaxpu=1.1 
New Load.IP_10168_MOD3 bus=BT_34452_1.2 phases=1 conn=Wye kv=0.219 kw=0.088 pf=0.92 Daily=cc38_Util Model=3 status=variable vminpu=0.93 vmaxpu=1.1 

New Load.IP_10169_MOD2 bus=BT_23713_1.3 phases=1 conn=Wye kv=0.219 kw=0.088 pf=0.92 Daily=cc38_Util Model=2 status=variable vminpu=0.93 vmaxpu=1.1 
New Load.IP_10169_MOD3 bus=BT_23713_1.3 phases=1 conn=Wye kv=0.219 kw=0.088 pf=0.92 Daily=cc38_Util Model=3 status=variable vminpu=0.93 vmaxpu=1.1 

New Load.IP_10172_MOD2 bus=BT_23725_1.3 phases=1 conn=Wye kv=0.219 kw=0.07 pf=0.92 Daily=cc38_Util Model=2 status=variable vminpu=0.93 vmaxpu=1.1 
New Load.IP_10172_MOD3 bus=BT_23725_1.3 phases=1 conn=Wye kv=0.219 kw=0.07 pf=0.92 Daily=cc38_Util Model=3 status=variable vminpu=0.93 vmaxpu=1.1 

New Load.IP_10185_MOD2 bus=BT_23720_1.3 phases=1 conn=Wye kv=0.219 kw=0.088 pf=0.92 Daily=cc38_Util Model=2 status=variable vminpu=0.93 vmaxpu=1.1 
New Load.IP_10185_MOD3 bus=BT_23720_1.3 phases=1 conn=Wye kv=0.219 kw=0.088 pf=0.92 Daily=cc38_Util Model=3 status=variable vminpu=0.93 vmaxpu=1.1 

New Load.IP_10191_MOD2 bus=BT_23722_1.2 phases=1 conn=Wye kv=0.219 kw=0.088 pf=0.92 Daily=cc38_Util Model=2 status=variable vminpu=0.93 vmaxpu=1.1 
New Load.IP_10191_MOD3 bus=BT_23722_1.2 phases=1 conn=Wye kv=0.219 kw=0.088 pf=0.92 Daily=cc38_Util Model=3 status=variable vminpu=0.93 vmaxpu=1.1 

New Load.IP_10217_MOD2 bus=BT_26419_1.2 phases=1 conn=Wye kv=0.219 kw=0.088 pf=0.92 Daily=cc38_Util Model=2 status=variable vminpu=0.93 vmaxpu=1.1 
New Load.IP_10217_MOD3 bus=BT_26419_1.2 phases=1 conn=Wye kv=0.219 kw=0.088 pf=0.92 Daily=cc38_Util Model=3 status=variable vminpu=0.93 vmaxpu=1.1 

New Load.IP_10222_MOD2 bus=BT_28198_2.3 phases=1 conn=Wye kv=0.219 kw=0.088 pf=0.92 Daily=cc38_Util Model=2 status=variable vminpu=0.93 vmaxpu=1.1 
New Load.IP_10222_MOD3 bus=BT_28198_2.3 phases=1 conn=Wye kv=0.219 kw=0.088 pf=0.92 Daily=cc38_Util Model=3 status=variable vminpu=0.93 vmaxpu=1.1 

New Load.IP_10228_MOD2 bus=BT_26390_2.3 phases=1 conn=Wye kv=0.219 kw=0.088 pf=0.92 Daily=cc38_Util Model=2 status=variable vminpu=0.93 vmaxpu=1.1 
New Load.IP_10228_MOD3 bus=BT_26390_2.3 phases=1 conn=Wye kv=0.219 kw=0.088 pf=0.92 Daily=cc38_Util Model=3 status=variable vminpu=0.93 vmaxpu=1.1 

New Load.IP_10247_MOD2 bus=BT_93056_1.1 phases=1 conn=Wye kv=0.219 kw=0.043 pf=0.92 Daily=cc38_Util Model=2 status=variable vminpu=0.93 vmaxpu=1.1 
New Load.IP_10247_MOD3 bus=BT_93056_1.1 phases=1 conn=Wye kv=0.219 kw=0.043 pf=0.92 Daily=cc38_Util Model=3 status=variable vminpu=0.93 vmaxpu=1.1 

New Load.IP_10248_MOD2 bus=BT_52126_1.3 phases=1 conn=Wye kv=0.219 kw=0.088 pf=0.92 Daily=cc38_Util Model=2 status=variable vminpu=0.93 vmaxpu=1.1 
New Load.IP_10248_MOD3 bus=BT_52126_1.3 phases=1 conn=Wye kv=0.219 kw=0.088 pf=0.92 Daily=cc38_Util Model=3 status=variable vminpu=0.93 vmaxpu=1.1 

New Load.IP_10249_MOD2 bus=BT_28226_1.3 phases=1 conn=Wye kv=0.219 kw=0.101 pf=0.92 Daily=cc38_Util Model=2 status=variable vminpu=0.93 vmaxpu=1.1 
New Load.IP_10249_MOD3 bus=BT_28226_1.3 phases=1 conn=Wye kv=0.219 kw=0.101 pf=0.92 Daily=cc38_Util Model=3 status=variable vminpu=0.93 vmaxpu=1.1 

New Load.IP_10250_MOD2 bus=BT_32151_1.1 phases=1 conn=Wye kv=0.22 kw=0.043 pf=0.92 Daily=cc38_Util Model=2 status=variable vminpu=0.93 vmaxpu=1.1 
New Load.IP_10250_MOD3 bus=BT_32151_1.1 phases=1 conn=Wye kv=0.22 kw=0.043 pf=0.92 Daily=cc38_Util Model=3 status=variable vminpu=0.93 vmaxpu=1.1 

New Load.IP_10263_MOD2 bus=BT_26437_1.2 phases=1 conn=Wye kv=0.219 kw=0.088 pf=0.92 Daily=cc38_Util Model=2 status=variable vminpu=0.93 vmaxpu=1.1 
New Load.IP_10263_MOD3 bus=BT_26437_1.2 phases=1 conn=Wye kv=0.219 kw=0.088 pf=0.92 Daily=cc38_Util Model=3 status=variable vminpu=0.93 vmaxpu=1.1 

New Load.IP_10264_MOD2 bus=BT_69255_1.3 phases=1 conn=Wye kv=0.219 kw=0.088 pf=0.92 Daily=cc38_Util Model=2 status=variable vminpu=0.93 vmaxpu=1.1 
New Load.IP_10264_MOD3 bus=BT_69255_1.3 phases=1 conn=Wye kv=0.219 kw=0.088 pf=0.92 Daily=cc38_Util Model=3 status=variable vminpu=0.93 vmaxpu=1.1 

New Load.IP_10265_MOD2 bus=BT_26396_1.3 phases=1 conn=Wye kv=0.219 kw=0.101 pf=0.92 Daily=cc38_Util Model=2 status=variable vminpu=0.93 vmaxpu=1.1 
New Load.IP_10265_MOD3 bus=BT_26396_1.3 phases=1 conn=Wye kv=0.219 kw=0.101 pf=0.92 Daily=cc38_Util Model=3 status=variable vminpu=0.93 vmaxpu=1.1 

New Load.IP_10266_MOD2 bus=BT_26431_1.3 phases=1 conn=Wye kv=0.219 kw=0.088 pf=0.92 Daily=cc38_Util Model=2 status=variable vminpu=0.93 vmaxpu=1.1 
New Load.IP_10266_MOD3 bus=BT_26431_1.3 phases=1 conn=Wye kv=0.219 kw=0.088 pf=0.92 Daily=cc38_Util Model=3 status=variable vminpu=0.93 vmaxpu=1.1 

New Load.IP_10267_MOD2 bus=BT_26429_1.3 phases=1 conn=Wye kv=0.219 kw=0.088 pf=0.92 Daily=cc38_Util Model=2 status=variable vminpu=0.93 vmaxpu=1.1 
New Load.IP_10267_MOD3 bus=BT_26429_1.3 phases=1 conn=Wye kv=0.219 kw=0.088 pf=0.92 Daily=cc38_Util Model=3 status=variable vminpu=0.93 vmaxpu=1.1 

New Load.IP_10268_MOD2 bus=BT_26449_1.3 phases=1 conn=Wye kv=0.219 kw=0.088 pf=0.92 Daily=cc38_Util Model=2 status=variable vminpu=0.93 vmaxpu=1.1 
New Load.IP_10268_MOD3 bus=BT_26449_1.3 phases=1 conn=Wye kv=0.219 kw=0.088 pf=0.92 Daily=cc38_Util Model=3 status=variable vminpu=0.93 vmaxpu=1.1 

New Load.IP_10269_MOD2 bus=BT_26448_1.2 phases=1 conn=Wye kv=0.219 kw=0.088 pf=0.92 Daily=cc38_Util Model=2 status=variable vminpu=0.93 vmaxpu=1.1 
New Load.IP_10269_MOD3 bus=BT_26448_1.2 phases=1 conn=Wye kv=0.219 kw=0.088 pf=0.92 Daily=cc38_Util Model=3 status=variable vminpu=0.93 vmaxpu=1.1 

New Load.IP_10271_MOD2 bus=BT_26445_1.3 phases=1 conn=Wye kv=0.219 kw=0.088 pf=0.92 Daily=cc38_Util Model=2 status=variable vminpu=0.93 vmaxpu=1.1 
New Load.IP_10271_MOD3 bus=BT_26445_1.3 phases=1 conn=Wye kv=0.219 kw=0.088 pf=0.92 Daily=cc38_Util Model=3 status=variable vminpu=0.93 vmaxpu=1.1 

New Load.IP_10272_MOD2 bus=BT_26446_1.3 phases=1 conn=Wye kv=0.219 kw=0.088 pf=0.92 Daily=cc38_Util Model=2 status=variable vminpu=0.93 vmaxpu=1.1 
New Load.IP_10272_MOD3 bus=BT_26446_1.3 phases=1 conn=Wye kv=0.219 kw=0.088 pf=0.92 Daily=cc38_Util Model=3 status=variable vminpu=0.93 vmaxpu=1.1 

New Load.IP_10273_MOD2 bus=BT_26433_1.3 phases=1 conn=Wye kv=0.219 kw=0.088 pf=0.92 Daily=cc38_Util Model=2 status=variable vminpu=0.93 vmaxpu=1.1 
New Load.IP_10273_MOD3 bus=BT_26433_1.3 phases=1 conn=Wye kv=0.219 kw=0.088 pf=0.92 Daily=cc38_Util Model=3 status=variable vminpu=0.93 vmaxpu=1.1 

New Load.IP_10287_MOD2 bus=BT_28217_1.3 phases=1 conn=Wye kv=0.219 kw=0.088 pf=0.92 Daily=cc38_Util Model=2 status=variable vminpu=0.93 vmaxpu=1.1 
New Load.IP_10287_MOD3 bus=BT_28217_1.3 phases=1 conn=Wye kv=0.219 kw=0.088 pf=0.92 Daily=cc38_Util Model=3 status=variable vminpu=0.93 vmaxpu=1.1 

New Load.IP_10291_MOD2 bus=BT_26757_1.2 phases=1 conn=Wye kv=0.22 kw=0.043 pf=0.92 Daily=cc38_Util Model=2 status=variable vminpu=0.93 vmaxpu=1.1 
New Load.IP_10291_MOD3 bus=BT_26757_1.2 phases=1 conn=Wye kv=0.22 kw=0.043 pf=0.92 Daily=cc38_Util Model=3 status=variable vminpu=0.93 vmaxpu=1.1 

New Load.IP_10318_MOD2 bus=BT_24111_1.1 phases=1 conn=Wye kv=0.22 kw=0.043 pf=0.92 Daily=cc38_Util Model=2 status=variable vminpu=0.93 vmaxpu=1.1 
New Load.IP_10318_MOD3 bus=BT_24111_1.1 phases=1 conn=Wye kv=0.22 kw=0.043 pf=0.92 Daily=cc38_Util Model=3 status=variable vminpu=0.93 vmaxpu=1.1 

New Load.IP_10351_MOD2 bus=BT_26409_1.3 phases=1 conn=Wye kv=0.219 kw=0.088 pf=0.92 Daily=cc38_Util Model=2 status=variable vminpu=0.93 vmaxpu=1.1 
New Load.IP_10351_MOD3 bus=BT_26409_1.3 phases=1 conn=Wye kv=0.219 kw=0.088 pf=0.92 Daily=cc38_Util Model=3 status=variable vminpu=0.93 vmaxpu=1.1 

New Load.IP_10354_MOD2 bus=BT_26423_1.3 phases=1 conn=Wye kv=0.219 kw=0.088 pf=0.92 Daily=cc38_Util Model=2 status=variable vminpu=0.93 vmaxpu=1.1 
New Load.IP_10354_MOD3 bus=BT_26423_1.3 phases=1 conn=Wye kv=0.219 kw=0.088 pf=0.92 Daily=cc38_Util Model=3 status=variable vminpu=0.93 vmaxpu=1.1 

New Load.IP_10355_MOD2 bus=BT_26412_1.3 phases=1 conn=Wye kv=0.219 kw=0.088 pf=0.92 Daily=cc38_Util Model=2 status=variable vminpu=0.93 vmaxpu=1.1 
New Load.IP_10355_MOD3 bus=BT_26412_1.3 phases=1 conn=Wye kv=0.219 kw=0.088 pf=0.92 Daily=cc38_Util Model=3 status=variable vminpu=0.93 vmaxpu=1.1 

New Load.IP_10356_MOD2 bus=BT_26414_1.2 phases=1 conn=Wye kv=0.219 kw=0.088 pf=0.92 Daily=cc38_Util Model=2 status=variable vminpu=0.93 vmaxpu=1.1 
New Load.IP_10356_MOD3 bus=BT_26414_1.2 phases=1 conn=Wye kv=0.219 kw=0.088 pf=0.92 Daily=cc38_Util Model=3 status=variable vminpu=0.93 vmaxpu=1.1 

New Load.IP_10357_MOD2 bus=BT_26424_2.1 phases=1 conn=Wye kv=0.219 kw=0.088 pf=0.92 Daily=cc38_Util Model=2 status=variable vminpu=0.93 vmaxpu=1.1 
New Load.IP_10357_MOD3 bus=BT_26424_2.1 phases=1 conn=Wye kv=0.219 kw=0.088 pf=0.92 Daily=cc38_Util Model=3 status=variable vminpu=0.93 vmaxpu=1.1 

New Load.IP_10502_MOD2 bus=BT_99125_1.3 phases=1 conn=Wye kv=0.219 kw=0.088 pf=0.92 Daily=cc38_Util Model=2 status=variable vminpu=0.93 vmaxpu=1.1 
New Load.IP_10502_MOD3 bus=BT_99125_1.3 phases=1 conn=Wye kv=0.219 kw=0.088 pf=0.92 Daily=cc38_Util Model=3 status=variable vminpu=0.93 vmaxpu=1.1 

New Load.IP_10503_MOD2 bus=BT_76014_1.2 phases=1 conn=Wye kv=0.22 kw=0.043 pf=0.92 Daily=cc38_Util Model=2 status=variable vminpu=0.93 vmaxpu=1.1 
New Load.IP_10503_MOD3 bus=BT_76014_1.2 phases=1 conn=Wye kv=0.22 kw=0.043 pf=0.92 Daily=cc38_Util Model=3 status=variable vminpu=0.93 vmaxpu=1.1 

New Load.IP_10505_MOD2 bus=BT_24134_1.1 phases=1 conn=Wye kv=0.22 kw=0.043 pf=0.92 Daily=cc38_Util Model=2 status=variable vminpu=0.93 vmaxpu=1.1 
New Load.IP_10505_MOD3 bus=BT_24134_1.1 phases=1 conn=Wye kv=0.22 kw=0.043 pf=0.92 Daily=cc38_Util Model=3 status=variable vminpu=0.93 vmaxpu=1.1 

New Load.IP_10514_MOD2 bus=BT_101416_1.2 phases=1 conn=Wye kv=0.22 kw=0.043 pf=0.92 Daily=cc38_Util Model=2 status=variable vminpu=0.93 vmaxpu=1.1 
New Load.IP_10514_MOD3 bus=BT_101416_1.2 phases=1 conn=Wye kv=0.22 kw=0.043 pf=0.92 Daily=cc38_Util Model=3 status=variable vminpu=0.93 vmaxpu=1.1 

New Load.IP_10515_MOD2 bus=BT_50317_1.2 phases=1 conn=Wye kv=0.22 kw=0.088 pf=0.92 Daily=cc38_Util Model=2 status=variable vminpu=0.93 vmaxpu=1.1 
New Load.IP_10515_MOD3 bus=BT_50317_1.2 phases=1 conn=Wye kv=0.22 kw=0.088 pf=0.92 Daily=cc38_Util Model=3 status=variable vminpu=0.93 vmaxpu=1.1 

New Load.IP_10516_MOD2 bus=BT_80908_1.1 phases=1 conn=Wye kv=0.22 kw=0.088 pf=0.92 Daily=cc38_Util Model=2 status=variable vminpu=0.93 vmaxpu=1.1 
New Load.IP_10516_MOD3 bus=BT_80908_1.1 phases=1 conn=Wye kv=0.22 kw=0.088 pf=0.92 Daily=cc38_Util Model=3 status=variable vminpu=0.93 vmaxpu=1.1 

New Load.IP_10600_MOD2 bus=BT_34905_1.1 phases=1 conn=Wye kv=0.22 kw=0.043 pf=0.92 Daily=cc38_Util Model=2 status=variable vminpu=0.93 vmaxpu=1.1 
New Load.IP_10600_MOD3 bus=BT_34905_1.1 phases=1 conn=Wye kv=0.22 kw=0.043 pf=0.92 Daily=cc38_Util Model=3 status=variable vminpu=0.93 vmaxpu=1.1 

New Load.IP_10686_MOD2 bus=BT_48394_1.1 phases=1 conn=Wye kv=0.22 kw=0.073 pf=0.92 Daily=cc38_Util Model=2 status=variable vminpu=0.93 vmaxpu=1.1 
New Load.IP_10686_MOD3 bus=BT_48394_1.1 phases=1 conn=Wye kv=0.22 kw=0.073 pf=0.92 Daily=cc38_Util Model=3 status=variable vminpu=0.93 vmaxpu=1.1 

New Load.IP_10707_MOD2 bus=BT_41962_1.1 phases=1 conn=Wye kv=0.22 kw=0.034 pf=0.92 Daily=cc38_Util Model=2 status=variable vminpu=0.93 vmaxpu=1.1 
New Load.IP_10707_MOD3 bus=BT_41962_1.1 phases=1 conn=Wye kv=0.22 kw=0.034 pf=0.92 Daily=cc38_Util Model=3 status=variable vminpu=0.93 vmaxpu=1.1 

New Load.IP_10711_MOD2 bus=BT_80166_1.2 phases=1 conn=Wye kv=0.219 kw=0.043 pf=0.92 Daily=cc38_Util Model=2 status=variable vminpu=0.93 vmaxpu=1.1 
New Load.IP_10711_MOD3 bus=BT_80166_1.2 phases=1 conn=Wye kv=0.219 kw=0.043 pf=0.92 Daily=cc38_Util Model=3 status=variable vminpu=0.93 vmaxpu=1.1 

New Load.IP_10720_MOD2 bus=BT_53654_1.2 phases=1 conn=Wye kv=0.22 kw=0.043 pf=0.92 Daily=cc38_Util Model=2 status=variable vminpu=0.93 vmaxpu=1.1 
New Load.IP_10720_MOD3 bus=BT_53654_1.2 phases=1 conn=Wye kv=0.22 kw=0.043 pf=0.92 Daily=cc38_Util Model=3 status=variable vminpu=0.93 vmaxpu=1.1 

New Load.IP_10736_MOD2 bus=BT_31483_1.1 phases=1 conn=Wye kv=0.22 kw=0.043 pf=0.92 Daily=cc38_Util Model=2 status=variable vminpu=0.93 vmaxpu=1.1 
New Load.IP_10736_MOD3 bus=BT_31483_1.1 phases=1 conn=Wye kv=0.22 kw=0.043 pf=0.92 Daily=cc38_Util Model=3 status=variable vminpu=0.93 vmaxpu=1.1 

New Load.IP_10737_MOD2 bus=BT_25318_1.1 phases=1 conn=Wye kv=0.219 kw=0.1435 pf=0.92 Daily=cc38_Util Model=2 status=variable vminpu=0.93 vmaxpu=1.1 
New Load.IP_10737_MOD3 bus=BT_25318_1.1 phases=1 conn=Wye kv=0.219 kw=0.1435 pf=0.92 Daily=cc38_Util Model=3 status=variable vminpu=0.93 vmaxpu=1.1 

New Load.IP_10738_MOD2 bus=BT_25324_1.3 phases=1 conn=Wye kv=0.219 kw=0.1435 pf=0.92 Daily=cc38_Util Model=2 status=variable vminpu=0.93 vmaxpu=1.1 
New Load.IP_10738_MOD3 bus=BT_25324_1.3 phases=1 conn=Wye kv=0.219 kw=0.1435 pf=0.92 Daily=cc38_Util Model=3 status=variable vminpu=0.93 vmaxpu=1.1 

New Load.IP_10739_MOD2 bus=BT_25322_1.3 phases=1 conn=Wye kv=0.219 kw=0.043 pf=0.92 Daily=cc38_Util Model=2 status=variable vminpu=0.93 vmaxpu=1.1 
New Load.IP_10739_MOD3 bus=BT_25322_1.3 phases=1 conn=Wye kv=0.219 kw=0.043 pf=0.92 Daily=cc38_Util Model=3 status=variable vminpu=0.93 vmaxpu=1.1 

New Load.IP_10740_MOD2 bus=BT_25321_1.3 phases=1 conn=Wye kv=0.219 kw=0.043 pf=0.92 Daily=cc38_Util Model=2 status=variable vminpu=0.93 vmaxpu=1.1 
New Load.IP_10740_MOD3 bus=BT_25321_1.3 phases=1 conn=Wye kv=0.219 kw=0.043 pf=0.92 Daily=cc38_Util Model=3 status=variable vminpu=0.93 vmaxpu=1.1 

New Load.IP_10741_MOD2 bus=BT_45026_1.3 phases=1 conn=Wye kv=0.219 kw=0.051 pf=0.92 Daily=cc38_Util Model=2 status=variable vminpu=0.93 vmaxpu=1.1 
New Load.IP_10741_MOD3 bus=BT_45026_1.3 phases=1 conn=Wye kv=0.219 kw=0.051 pf=0.92 Daily=cc38_Util Model=3 status=variable vminpu=0.93 vmaxpu=1.1 

New Load.IP_10742_MOD2 bus=BT_25325_1.3 phases=1 conn=Wye kv=0.219 kw=0.1435 pf=0.92 Daily=cc38_Util Model=2 status=variable vminpu=0.93 vmaxpu=1.1 
New Load.IP_10742_MOD3 bus=BT_25325_1.3 phases=1 conn=Wye kv=0.219 kw=0.1435 pf=0.92 Daily=cc38_Util Model=3 status=variable vminpu=0.93 vmaxpu=1.1 

New Load.IP_10743_MOD2 bus=BT_23537_1.3 phases=1 conn=Wye kv=0.219 kw=0.125 pf=0.92 Daily=cc38_Util Model=2 status=variable vminpu=0.93 vmaxpu=1.1 
New Load.IP_10743_MOD3 bus=BT_23537_1.3 phases=1 conn=Wye kv=0.219 kw=0.125 pf=0.92 Daily=cc38_Util Model=3 status=variable vminpu=0.93 vmaxpu=1.1 

New Load.IP_10745_MOD2 bus=BT_80060_1.1 phases=1 conn=Wye kv=0.22 kw=0.043 pf=0.92 Daily=cc38_Util Model=2 status=variable vminpu=0.93 vmaxpu=1.1 
New Load.IP_10745_MOD3 bus=BT_80060_1.1 phases=1 conn=Wye kv=0.22 kw=0.043 pf=0.92 Daily=cc38_Util Model=3 status=variable vminpu=0.93 vmaxpu=1.1 

New Load.IP_10746_MOD2 bus=BT_23519_1.3 phases=1 conn=Wye kv=0.219 kw=0.043 pf=0.92 Daily=cc38_Util Model=2 status=variable vminpu=0.93 vmaxpu=1.1 
New Load.IP_10746_MOD3 bus=BT_23519_1.3 phases=1 conn=Wye kv=0.219 kw=0.043 pf=0.92 Daily=cc38_Util Model=3 status=variable vminpu=0.93 vmaxpu=1.1 

New Load.IP_10747_MOD2 bus=BT_23514_1.3 phases=1 conn=Wye kv=0.219 kw=0.043 pf=0.92 Daily=cc38_Util Model=2 status=variable vminpu=0.93 vmaxpu=1.1 
New Load.IP_10747_MOD3 bus=BT_23514_1.3 phases=1 conn=Wye kv=0.219 kw=0.043 pf=0.92 Daily=cc38_Util Model=3 status=variable vminpu=0.93 vmaxpu=1.1 

New Load.IP_10748_MOD2 bus=BT_23511_1.3 phases=1 conn=Wye kv=0.219 kw=0.125 pf=0.92 Daily=cc38_Util Model=2 status=variable vminpu=0.93 vmaxpu=1.1 
New Load.IP_10748_MOD3 bus=BT_23511_1.3 phases=1 conn=Wye kv=0.219 kw=0.125 pf=0.92 Daily=cc38_Util Model=3 status=variable vminpu=0.93 vmaxpu=1.1 

New Load.IP_10749_MOD2 bus=BT_23512_1.2 phases=1 conn=Wye kv=0.219 kw=0.043 pf=0.92 Daily=cc38_Util Model=2 status=variable vminpu=0.93 vmaxpu=1.1 
New Load.IP_10749_MOD3 bus=BT_23512_1.2 phases=1 conn=Wye kv=0.219 kw=0.043 pf=0.92 Daily=cc38_Util Model=3 status=variable vminpu=0.93 vmaxpu=1.1 

New Load.IP_10750_MOD2 bus=BT_23532_1.2 phases=1 conn=Wye kv=0.219 kw=0.043 pf=0.92 Daily=cc38_Util Model=2 status=variable vminpu=0.93 vmaxpu=1.1 
New Load.IP_10750_MOD3 bus=BT_23532_1.2 phases=1 conn=Wye kv=0.219 kw=0.043 pf=0.92 Daily=cc38_Util Model=3 status=variable vminpu=0.93 vmaxpu=1.1 

New Load.IP_10751_MOD2 bus=BT_23510_1.3 phases=1 conn=Wye kv=0.219 kw=0.043 pf=0.92 Daily=cc38_Util Model=2 status=variable vminpu=0.93 vmaxpu=1.1 
New Load.IP_10751_MOD3 bus=BT_23510_1.3 phases=1 conn=Wye kv=0.219 kw=0.043 pf=0.92 Daily=cc38_Util Model=3 status=variable vminpu=0.93 vmaxpu=1.1 

New Load.IP_10752_MOD2 bus=BT_40900_1.3 phases=1 conn=Wye kv=0.219 kw=0.043 pf=0.92 Daily=cc38_Util Model=2 status=variable vminpu=0.93 vmaxpu=1.1 
New Load.IP_10752_MOD3 bus=BT_40900_1.3 phases=1 conn=Wye kv=0.219 kw=0.043 pf=0.92 Daily=cc38_Util Model=3 status=variable vminpu=0.93 vmaxpu=1.1 

New Load.IP_10753_MOD2 bus=BT_40899_1.3 phases=1 conn=Wye kv=0.219 kw=0.043 pf=0.92 Daily=cc38_Util Model=2 status=variable vminpu=0.93 vmaxpu=1.1 
New Load.IP_10753_MOD3 bus=BT_40899_1.3 phases=1 conn=Wye kv=0.219 kw=0.043 pf=0.92 Daily=cc38_Util Model=3 status=variable vminpu=0.93 vmaxpu=1.1 

New Load.IP_10754_MOD2 bus=BT_40898_1.3 phases=1 conn=Wye kv=0.219 kw=0.043 pf=0.92 Daily=cc38_Util Model=2 status=variable vminpu=0.93 vmaxpu=1.1 
New Load.IP_10754_MOD3 bus=BT_40898_1.3 phases=1 conn=Wye kv=0.219 kw=0.043 pf=0.92 Daily=cc38_Util Model=3 status=variable vminpu=0.93 vmaxpu=1.1 

New Load.IP_10756_MOD2 bus=BT_41964_1.2 phases=1 conn=Wye kv=0.219 kw=0.1435 pf=0.92 Daily=cc38_Util Model=2 status=variable vminpu=0.93 vmaxpu=1.1 
New Load.IP_10756_MOD3 bus=BT_41964_1.2 phases=1 conn=Wye kv=0.219 kw=0.1435 pf=0.92 Daily=cc38_Util Model=3 status=variable vminpu=0.93 vmaxpu=1.1 

New Load.IP_10757_MOD2 bus=BT_23501_1.3 phases=1 conn=Wye kv=0.219 kw=0.125 pf=0.92 Daily=cc38_Util Model=2 status=variable vminpu=0.93 vmaxpu=1.1 
New Load.IP_10757_MOD3 bus=BT_23501_1.3 phases=1 conn=Wye kv=0.219 kw=0.125 pf=0.92 Daily=cc38_Util Model=3 status=variable vminpu=0.93 vmaxpu=1.1 

New Load.IP_10758_MOD2 bus=BT_23491_1.3 phases=1 conn=Wye kv=0.219 kw=0.1375 pf=0.92 Daily=cc38_Util Model=2 status=variable vminpu=0.93 vmaxpu=1.1 
New Load.IP_10758_MOD3 bus=BT_23491_1.3 phases=1 conn=Wye kv=0.219 kw=0.1375 pf=0.92 Daily=cc38_Util Model=3 status=variable vminpu=0.93 vmaxpu=1.1 

New Load.IP_10759_MOD2 bus=BT_29428_1.1 phases=1 conn=Wye kv=0.22 kw=0.043 pf=0.92 Daily=cc38_Util Model=2 status=variable vminpu=0.93 vmaxpu=1.1 
New Load.IP_10759_MOD3 bus=BT_29428_1.1 phases=1 conn=Wye kv=0.22 kw=0.043 pf=0.92 Daily=cc38_Util Model=3 status=variable vminpu=0.93 vmaxpu=1.1 

New Load.IP_10760_MOD2 bus=BT_23497_1.3 phases=1 conn=Wye kv=0.219 kw=0.04 pf=0.92 Daily=cc38_Util Model=2 status=variable vminpu=0.93 vmaxpu=1.1 
New Load.IP_10760_MOD3 bus=BT_23497_1.3 phases=1 conn=Wye kv=0.219 kw=0.04 pf=0.92 Daily=cc38_Util Model=3 status=variable vminpu=0.93 vmaxpu=1.1 

New Load.IP_10761_MOD2 bus=BT_30328_1.2 phases=1 conn=Wye kv=0.22 kw=0.043 pf=0.92 Daily=cc38_Util Model=2 status=variable vminpu=0.93 vmaxpu=1.1 
New Load.IP_10761_MOD3 bus=BT_30328_1.2 phases=1 conn=Wye kv=0.22 kw=0.043 pf=0.92 Daily=cc38_Util Model=3 status=variable vminpu=0.93 vmaxpu=1.1 

New Load.IP_10762_MOD2 bus=BT_33394_1.2 phases=1 conn=Wye kv=0.22 kw=0.073 pf=0.92 Daily=cc38_Util Model=2 status=variable vminpu=0.93 vmaxpu=1.1 
New Load.IP_10762_MOD3 bus=BT_33394_1.2 phases=1 conn=Wye kv=0.22 kw=0.073 pf=0.92 Daily=cc38_Util Model=3 status=variable vminpu=0.93 vmaxpu=1.1 

New Load.IP_10765_MOD2 bus=BT_28876_1.2 phases=1 conn=Wye kv=0.22 kw=0.043 pf=0.92 Daily=cc38_Util Model=2 status=variable vminpu=0.93 vmaxpu=1.1 
New Load.IP_10765_MOD3 bus=BT_28876_1.2 phases=1 conn=Wye kv=0.22 kw=0.043 pf=0.92 Daily=cc38_Util Model=3 status=variable vminpu=0.93 vmaxpu=1.1 

New Load.IP_10766_MOD2 bus=BT_95150_1.1 phases=1 conn=Wye kv=0.22 kw=0.043 pf=0.92 Daily=cc38_Util Model=2 status=variable vminpu=0.93 vmaxpu=1.1 
New Load.IP_10766_MOD3 bus=BT_95150_1.1 phases=1 conn=Wye kv=0.22 kw=0.043 pf=0.92 Daily=cc38_Util Model=3 status=variable vminpu=0.93 vmaxpu=1.1 

New Load.IP_10767_MOD2 bus=BT_95153_1.2 phases=1 conn=Wye kv=0.22 kw=0.043 pf=0.92 Daily=cc38_Util Model=2 status=variable vminpu=0.93 vmaxpu=1.1 
New Load.IP_10767_MOD3 bus=BT_95153_1.2 phases=1 conn=Wye kv=0.22 kw=0.043 pf=0.92 Daily=cc38_Util Model=3 status=variable vminpu=0.93 vmaxpu=1.1 

New Load.IP_10768_MOD2 bus=BT_95152_1.1 phases=1 conn=Wye kv=0.22 kw=0.043 pf=0.92 Daily=cc38_Util Model=2 status=variable vminpu=0.93 vmaxpu=1.1 
New Load.IP_10768_MOD3 bus=BT_95152_1.1 phases=1 conn=Wye kv=0.22 kw=0.043 pf=0.92 Daily=cc38_Util Model=3 status=variable vminpu=0.93 vmaxpu=1.1 

New Load.IP_10769_MOD2 bus=BT_28909_1.2 phases=1 conn=Wye kv=0.22 kw=0.043 pf=0.92 Daily=cc38_Util Model=2 status=variable vminpu=0.93 vmaxpu=1.1 
New Load.IP_10769_MOD3 bus=BT_28909_1.2 phases=1 conn=Wye kv=0.22 kw=0.043 pf=0.92 Daily=cc38_Util Model=3 status=variable vminpu=0.93 vmaxpu=1.1 

New Load.IP_10770_MOD2 bus=BT_52154_1.2 phases=1 conn=Wye kv=0.22 kw=0.04 pf=0.92 Daily=cc38_Util Model=2 status=variable vminpu=0.93 vmaxpu=1.1 
New Load.IP_10770_MOD3 bus=BT_52154_1.2 phases=1 conn=Wye kv=0.22 kw=0.04 pf=0.92 Daily=cc38_Util Model=3 status=variable vminpu=0.93 vmaxpu=1.1 

New Load.IP_1081_MOD2 bus=BT_25329_1.3 phases=1 conn=Wye kv=0.219 kw=0.1435 pf=0.92 Daily=cc38_Util Model=2 status=variable vminpu=0.93 vmaxpu=1.1 
New Load.IP_1081_MOD3 bus=BT_25329_1.3 phases=1 conn=Wye kv=0.219 kw=0.1435 pf=0.92 Daily=cc38_Util Model=3 status=variable vminpu=0.93 vmaxpu=1.1 

New Load.IP_10894_MOD2 bus=BT_27912_1.2 phases=1 conn=Wye kv=0.22 kw=0.043 pf=0.92 Daily=cc38_Util Model=2 status=variable vminpu=0.93 vmaxpu=1.1 
New Load.IP_10894_MOD3 bus=BT_27912_1.2 phases=1 conn=Wye kv=0.22 kw=0.043 pf=0.92 Daily=cc38_Util Model=3 status=variable vminpu=0.93 vmaxpu=1.1 

New Load.IP_10960_MOD2 bus=BT_88919_1.3 phases=1 conn=Wye kv=0.219 kw=0.1435 pf=0.92 Daily=cc38_Util Model=2 status=variable vminpu=0.93 vmaxpu=1.1 
New Load.IP_10960_MOD3 bus=BT_88919_1.3 phases=1 conn=Wye kv=0.219 kw=0.1435 pf=0.92 Daily=cc38_Util Model=3 status=variable vminpu=0.93 vmaxpu=1.1 

New Load.IP_10963_MOD2 bus=BT_88961_1.3 phases=1 conn=Wye kv=0.219 kw=0.1435 pf=0.92 Daily=cc38_Util Model=2 status=variable vminpu=0.93 vmaxpu=1.1 
New Load.IP_10963_MOD3 bus=BT_88961_1.3 phases=1 conn=Wye kv=0.219 kw=0.1435 pf=0.92 Daily=cc38_Util Model=3 status=variable vminpu=0.93 vmaxpu=1.1 

New Load.IP_10995_MOD2 bus=BT_101432_1.1 phases=1 conn=Wye kv=0.22 kw=0.043 pf=0.92 Daily=cc38_Util Model=2 status=variable vminpu=0.93 vmaxpu=1.1 
New Load.IP_10995_MOD3 bus=BT_101432_1.1 phases=1 conn=Wye kv=0.22 kw=0.043 pf=0.92 Daily=cc38_Util Model=3 status=variable vminpu=0.93 vmaxpu=1.1 

New Load.IP_11134_MOD2 bus=BT_35131_1.1 phases=1 conn=Wye kv=0.22 kw=0.04 pf=0.92 Daily=cc38_Util Model=2 status=variable vminpu=0.93 vmaxpu=1.1 
New Load.IP_11134_MOD3 bus=BT_35131_1.1 phases=1 conn=Wye kv=0.22 kw=0.04 pf=0.92 Daily=cc38_Util Model=3 status=variable vminpu=0.93 vmaxpu=1.1 

New Load.IP_11295_MOD2 bus=BT_80004_1.2 phases=1 conn=Wye kv=0.22 kw=0.088 pf=0.92 Daily=cc38_Util Model=2 status=variable vminpu=0.93 vmaxpu=1.1 
New Load.IP_11295_MOD3 bus=BT_80004_1.2 phases=1 conn=Wye kv=0.22 kw=0.088 pf=0.92 Daily=cc38_Util Model=3 status=variable vminpu=0.93 vmaxpu=1.1 

New Load.IP_11296_MOD2 bus=BT_24139_1.2 phases=1 conn=Wye kv=0.22 kw=0.043 pf=0.92 Daily=cc38_Util Model=2 status=variable vminpu=0.93 vmaxpu=1.1 
New Load.IP_11296_MOD3 bus=BT_24139_1.2 phases=1 conn=Wye kv=0.22 kw=0.043 pf=0.92 Daily=cc38_Util Model=3 status=variable vminpu=0.93 vmaxpu=1.1 

New Load.IP_11297_MOD2 bus=BT_100966_1.2 phases=1 conn=Wye kv=0.22 kw=0.043 pf=0.92 Daily=cc38_Util Model=2 status=variable vminpu=0.93 vmaxpu=1.1 
New Load.IP_11297_MOD3 bus=BT_100966_1.2 phases=1 conn=Wye kv=0.22 kw=0.043 pf=0.92 Daily=cc38_Util Model=3 status=variable vminpu=0.93 vmaxpu=1.1 

New Load.IP_11442_MOD2 bus=BT_33075_1.2 phases=1 conn=Wye kv=0.219 kw=0.088 pf=0.92 Daily=cc38_Util Model=2 status=variable vminpu=0.93 vmaxpu=1.1 
New Load.IP_11442_MOD3 bus=BT_33075_1.2 phases=1 conn=Wye kv=0.219 kw=0.088 pf=0.92 Daily=cc38_Util Model=3 status=variable vminpu=0.93 vmaxpu=1.1 

New Load.IP_11443_MOD2 bus=BT_98679_1.3 phases=1 conn=Wye kv=0.219 kw=0.088 pf=0.92 Daily=cc38_Util Model=2 status=variable vminpu=0.93 vmaxpu=1.1 
New Load.IP_11443_MOD3 bus=BT_98679_1.3 phases=1 conn=Wye kv=0.219 kw=0.088 pf=0.92 Daily=cc38_Util Model=3 status=variable vminpu=0.93 vmaxpu=1.1 

New Load.IP_11444_MOD2 bus=BT_86004_1.3 phases=1 conn=Wye kv=0.219 kw=0.1375 pf=0.92 Daily=cc38_Util Model=2 status=variable vminpu=0.93 vmaxpu=1.1 
New Load.IP_11444_MOD3 bus=BT_86004_1.3 phases=1 conn=Wye kv=0.219 kw=0.1375 pf=0.92 Daily=cc38_Util Model=3 status=variable vminpu=0.93 vmaxpu=1.1 

New Load.IP_11478_MOD2 bus=BT_67338_1.2 phases=1 conn=Wye kv=0.219 kw=0.088 pf=0.92 Daily=cc38_Util Model=2 status=variable vminpu=0.93 vmaxpu=1.1 
New Load.IP_11478_MOD3 bus=BT_67338_1.2 phases=1 conn=Wye kv=0.219 kw=0.088 pf=0.92 Daily=cc38_Util Model=3 status=variable vminpu=0.93 vmaxpu=1.1 

New Load.IP_11947_MOD2 bus=BT_107182_1.1 phases=1 conn=Wye kv=0.22 kw=0.043 pf=0.92 Daily=cc38_Util Model=2 status=variable vminpu=0.93 vmaxpu=1.1 
New Load.IP_11947_MOD3 bus=BT_107182_1.1 phases=1 conn=Wye kv=0.22 kw=0.043 pf=0.92 Daily=cc38_Util Model=3 status=variable vminpu=0.93 vmaxpu=1.1 

New Load.IP_11980_MOD2 bus=BT_98072_1.1 phases=1 conn=Wye kv=0.219 kw=0.088 pf=0.92 Daily=cc38_Util Model=2 status=variable vminpu=0.93 vmaxpu=1.1 
New Load.IP_11980_MOD3 bus=BT_98072_1.1 phases=1 conn=Wye kv=0.219 kw=0.088 pf=0.92 Daily=cc38_Util Model=3 status=variable vminpu=0.93 vmaxpu=1.1 

New Load.IP_12022_MOD2 bus=BT_100724_2.2 phases=1 conn=Wye kv=0.22 kw=0.043 pf=0.92 Daily=cc38_Util Model=2 status=variable vminpu=0.93 vmaxpu=1.1 
New Load.IP_12022_MOD3 bus=BT_100724_2.2 phases=1 conn=Wye kv=0.22 kw=0.043 pf=0.92 Daily=cc38_Util Model=3 status=variable vminpu=0.93 vmaxpu=1.1 

New Load.IP_12033_MOD2 bus=BT_84314_1.2 phases=1 conn=Wye kv=0.219 kw=0.043 pf=0.92 Daily=cc38_Util Model=2 status=variable vminpu=0.93 vmaxpu=1.1 
New Load.IP_12033_MOD3 bus=BT_84314_1.2 phases=1 conn=Wye kv=0.219 kw=0.043 pf=0.92 Daily=cc38_Util Model=3 status=variable vminpu=0.93 vmaxpu=1.1 

New Load.IP_12037_MOD2 bus=BT_100567_1.1 phases=1 conn=Wye kv=0.219 kw=0.043 pf=0.92 Daily=cc38_Util Model=2 status=variable vminpu=0.93 vmaxpu=1.1 
New Load.IP_12037_MOD3 bus=BT_100567_1.1 phases=1 conn=Wye kv=0.219 kw=0.043 pf=0.92 Daily=cc38_Util Model=3 status=variable vminpu=0.93 vmaxpu=1.1 

New Load.IP_12038_MOD2 bus=BT_22314_1.2 phases=1 conn=Wye kv=0.22 kw=0.043 pf=0.92 Daily=cc38_Util Model=2 status=variable vminpu=0.93 vmaxpu=1.1 
New Load.IP_12038_MOD3 bus=BT_22314_1.2 phases=1 conn=Wye kv=0.22 kw=0.043 pf=0.92 Daily=cc38_Util Model=3 status=variable vminpu=0.93 vmaxpu=1.1 

New Load.IP_12053_MOD2 bus=BT_52117_1.2 phases=1 conn=Wye kv=0.219 kw=0.1375 pf=0.92 Daily=cc38_Util Model=2 status=variable vminpu=0.93 vmaxpu=1.1 
New Load.IP_12053_MOD3 bus=BT_52117_1.2 phases=1 conn=Wye kv=0.219 kw=0.1375 pf=0.92 Daily=cc38_Util Model=3 status=variable vminpu=0.93 vmaxpu=1.1 

New Load.IP_12055_MOD2 bus=BT_26388_1.3 phases=1 conn=Wye kv=0.219 kw=0.088 pf=0.92 Daily=cc38_Util Model=2 status=variable vminpu=0.93 vmaxpu=1.1 
New Load.IP_12055_MOD3 bus=BT_26388_1.3 phases=1 conn=Wye kv=0.219 kw=0.088 pf=0.92 Daily=cc38_Util Model=3 status=variable vminpu=0.93 vmaxpu=1.1 

New Load.IP_12066_MOD2 bus=BT_58726_1.1 phases=1 conn=Wye kv=0.22 kw=0.043 pf=0.92 Daily=cc38_Util Model=2 status=variable vminpu=0.93 vmaxpu=1.1 
New Load.IP_12066_MOD3 bus=BT_58726_1.1 phases=1 conn=Wye kv=0.22 kw=0.043 pf=0.92 Daily=cc38_Util Model=3 status=variable vminpu=0.93 vmaxpu=1.1 

New Load.IP_12097_MOD2 bus=BT_22702_1.1 phases=1 conn=Wye kv=0.22 kw=0.043 pf=0.92 Daily=cc38_Util Model=2 status=variable vminpu=0.93 vmaxpu=1.1 
New Load.IP_12097_MOD3 bus=BT_22702_1.1 phases=1 conn=Wye kv=0.22 kw=0.043 pf=0.92 Daily=cc38_Util Model=3 status=variable vminpu=0.93 vmaxpu=1.1 

New Load.IP_12098_MOD2 bus=BT_22703_1.2 phases=1 conn=Wye kv=0.22 kw=0.043 pf=0.92 Daily=cc38_Util Model=2 status=variable vminpu=0.93 vmaxpu=1.1 
New Load.IP_12098_MOD3 bus=BT_22703_1.2 phases=1 conn=Wye kv=0.22 kw=0.043 pf=0.92 Daily=cc38_Util Model=3 status=variable vminpu=0.93 vmaxpu=1.1 

New Load.IP_12119_MOD2 bus=BT_3093_1.1 phases=1 conn=Wye kv=0.219 kw=0.043 pf=0.92 Daily=cc38_Util Model=2 status=variable vminpu=0.93 vmaxpu=1.1 
New Load.IP_12119_MOD3 bus=BT_3093_1.1 phases=1 conn=Wye kv=0.219 kw=0.043 pf=0.92 Daily=cc38_Util Model=3 status=variable vminpu=0.93 vmaxpu=1.1 

New Load.IP_12120_MOD2 bus=BT_101687_1.1 phases=1 conn=Wye kv=0.219 kw=0.1435 pf=0.92 Daily=cc38_Util Model=2 status=variable vminpu=0.93 vmaxpu=1.1 
New Load.IP_12120_MOD3 bus=BT_101687_1.1 phases=1 conn=Wye kv=0.219 kw=0.1435 pf=0.92 Daily=cc38_Util Model=3 status=variable vminpu=0.93 vmaxpu=1.1 

New Load.IP_12194_MOD2 bus=BT_28227_1.3 phases=1 conn=Wye kv=0.219 kw=0.088 pf=0.92 Daily=cc38_Util Model=2 status=variable vminpu=0.93 vmaxpu=1.1 
New Load.IP_12194_MOD3 bus=BT_28227_1.3 phases=1 conn=Wye kv=0.219 kw=0.088 pf=0.92 Daily=cc38_Util Model=3 status=variable vminpu=0.93 vmaxpu=1.1 

New Load.IP_12195_MOD2 bus=BT_109880_1.3 phases=1 conn=Wye kv=0.219 kw=0.088 pf=0.92 Daily=cc38_Util Model=2 status=variable vminpu=0.93 vmaxpu=1.1 
New Load.IP_12195_MOD3 bus=BT_109880_1.3 phases=1 conn=Wye kv=0.219 kw=0.088 pf=0.92 Daily=cc38_Util Model=3 status=variable vminpu=0.93 vmaxpu=1.1 

New Load.IP_12209_MOD2 bus=BT_21767_2.2 phases=1 conn=Wye kv=0.219 kw=0.088 pf=0.92 Daily=cc38_Util Model=2 status=variable vminpu=0.93 vmaxpu=1.1 
New Load.IP_12209_MOD3 bus=BT_21767_2.2 phases=1 conn=Wye kv=0.219 kw=0.088 pf=0.92 Daily=cc38_Util Model=3 status=variable vminpu=0.93 vmaxpu=1.1 

New Load.IP_12211_MOD2 bus=BT_28275_1.3 phases=1 conn=Wye kv=0.219 kw=0.088 pf=0.92 Daily=cc38_Util Model=2 status=variable vminpu=0.93 vmaxpu=1.1 
New Load.IP_12211_MOD3 bus=BT_28275_1.3 phases=1 conn=Wye kv=0.219 kw=0.088 pf=0.92 Daily=cc38_Util Model=3 status=variable vminpu=0.93 vmaxpu=1.1 

New Load.IP_12212_MOD2 bus=BT_86003_1.3 phases=1 conn=Wye kv=0.219 kw=0.088 pf=0.92 Daily=cc38_Util Model=2 status=variable vminpu=0.93 vmaxpu=1.1 
New Load.IP_12212_MOD3 bus=BT_86003_1.3 phases=1 conn=Wye kv=0.219 kw=0.088 pf=0.92 Daily=cc38_Util Model=3 status=variable vminpu=0.93 vmaxpu=1.1 

New Load.IP_12213_MOD2 bus=BT_28268_1.3 phases=1 conn=Wye kv=0.219 kw=0.088 pf=0.92 Daily=cc38_Util Model=2 status=variable vminpu=0.93 vmaxpu=1.1 
New Load.IP_12213_MOD3 bus=BT_28268_1.3 phases=1 conn=Wye kv=0.219 kw=0.088 pf=0.92 Daily=cc38_Util Model=3 status=variable vminpu=0.93 vmaxpu=1.1 

New Load.IP_12214_MOD2 bus=BT_109519_1.3 phases=1 conn=Wye kv=0.219 kw=0.0835 pf=0.92 Daily=cc38_Util Model=2 status=variable vminpu=0.93 vmaxpu=1.1 
New Load.IP_12214_MOD3 bus=BT_109519_1.3 phases=1 conn=Wye kv=0.219 kw=0.0835 pf=0.92 Daily=cc38_Util Model=3 status=variable vminpu=0.93 vmaxpu=1.1 

New Load.IP_12253_MOD2 bus=BT_26722_1.2 phases=1 conn=Wye kv=0.22 kw=0.043 pf=0.92 Daily=cc38_Util Model=2 status=variable vminpu=0.93 vmaxpu=1.1 
New Load.IP_12253_MOD3 bus=BT_26722_1.2 phases=1 conn=Wye kv=0.22 kw=0.043 pf=0.92 Daily=cc38_Util Model=3 status=variable vminpu=0.93 vmaxpu=1.1 

New Load.IP_12264_MOD2 bus=BT_80006_1.2 phases=1 conn=Wye kv=0.22 kw=0.088 pf=0.92 Daily=cc38_Util Model=2 status=variable vminpu=0.93 vmaxpu=1.1 
New Load.IP_12264_MOD3 bus=BT_80006_1.2 phases=1 conn=Wye kv=0.22 kw=0.088 pf=0.92 Daily=cc38_Util Model=3 status=variable vminpu=0.93 vmaxpu=1.1 

New Load.IP_1232_MOD2 bus=BT_95438_1.1 phases=1 conn=Wye kv=0.22 kw=0.088 pf=0.92 Daily=cc38_Util Model=2 status=variable vminpu=0.93 vmaxpu=1.1 
New Load.IP_1232_MOD3 bus=BT_95438_1.1 phases=1 conn=Wye kv=0.22 kw=0.088 pf=0.92 Daily=cc38_Util Model=3 status=variable vminpu=0.93 vmaxpu=1.1 

New Load.IP_12404_MOD2 bus=BT_101175_1.1 phases=1 conn=Wye kv=0.22 kw=0.043 pf=0.92 Daily=cc38_Util Model=2 status=variable vminpu=0.93 vmaxpu=1.1 
New Load.IP_12404_MOD3 bus=BT_101175_1.1 phases=1 conn=Wye kv=0.22 kw=0.043 pf=0.92 Daily=cc38_Util Model=3 status=variable vminpu=0.93 vmaxpu=1.1 

New Load.IP_12544_MOD2 bus=BT_49324_1.3 phases=1 conn=Wye kv=0.219 kw=0.088 pf=0.92 Daily=cc38_Util Model=2 status=variable vminpu=0.93 vmaxpu=1.1 
New Load.IP_12544_MOD3 bus=BT_49324_1.3 phases=1 conn=Wye kv=0.219 kw=0.088 pf=0.92 Daily=cc38_Util Model=3 status=variable vminpu=0.93 vmaxpu=1.1 

New Load.IP_12545_MOD2 bus=BT_23735_1.3 phases=1 conn=Wye kv=0.219 kw=0.1375 pf=0.92 Daily=cc38_Util Model=2 status=variable vminpu=0.93 vmaxpu=1.1 
New Load.IP_12545_MOD3 bus=BT_23735_1.3 phases=1 conn=Wye kv=0.219 kw=0.1375 pf=0.92 Daily=cc38_Util Model=3 status=variable vminpu=0.93 vmaxpu=1.1 

New Load.IP_12546_MOD2 bus=BT_27881_2.2 phases=1 conn=Wye kv=0.22 kw=0.073 pf=0.92 Daily=cc38_Util Model=2 status=variable vminpu=0.93 vmaxpu=1.1 
New Load.IP_12546_MOD3 bus=BT_27881_2.2 phases=1 conn=Wye kv=0.22 kw=0.073 pf=0.92 Daily=cc38_Util Model=3 status=variable vminpu=0.93 vmaxpu=1.1 

New Load.IP_12552_MOD2 bus=BT_108875_1.1 phases=1 conn=Wye kv=0.219 kw=0.043 pf=0.92 Daily=cc38_Util Model=2 status=variable vminpu=0.93 vmaxpu=1.1 
New Load.IP_12552_MOD3 bus=BT_108875_1.1 phases=1 conn=Wye kv=0.219 kw=0.043 pf=0.92 Daily=cc38_Util Model=3 status=variable vminpu=0.93 vmaxpu=1.1 

New Load.IP_12556_MOD2 bus=BT_30284_1.3 phases=1 conn=Wye kv=0.219 kw=0.073 pf=0.92 Daily=cc38_Util Model=2 status=variable vminpu=0.93 vmaxpu=1.1 
New Load.IP_12556_MOD3 bus=BT_30284_1.3 phases=1 conn=Wye kv=0.219 kw=0.073 pf=0.92 Daily=cc38_Util Model=3 status=variable vminpu=0.93 vmaxpu=1.1 

New Load.IP_12557_MOD2 bus=BT_86914_1.3 phases=1 conn=Wye kv=0.219 kw=0.043 pf=0.92 Daily=cc38_Util Model=2 status=variable vminpu=0.93 vmaxpu=1.1 
New Load.IP_12557_MOD3 bus=BT_86914_1.3 phases=1 conn=Wye kv=0.219 kw=0.043 pf=0.92 Daily=cc38_Util Model=3 status=variable vminpu=0.93 vmaxpu=1.1 

New Load.IP_12561_MOD2 bus=BT_99121_1.2 phases=1 conn=Wye kv=0.219 kw=0.088 pf=0.92 Daily=cc38_Util Model=2 status=variable vminpu=0.93 vmaxpu=1.1 
New Load.IP_12561_MOD3 bus=BT_99121_1.2 phases=1 conn=Wye kv=0.219 kw=0.088 pf=0.92 Daily=cc38_Util Model=3 status=variable vminpu=0.93 vmaxpu=1.1 

New Load.IP_12563_MOD2 bus=BT_76011_1.1 phases=1 conn=Wye kv=0.22 kw=0.043 pf=0.92 Daily=cc38_Util Model=2 status=variable vminpu=0.93 vmaxpu=1.1 
New Load.IP_12563_MOD3 bus=BT_76011_1.1 phases=1 conn=Wye kv=0.22 kw=0.043 pf=0.92 Daily=cc38_Util Model=3 status=variable vminpu=0.93 vmaxpu=1.1 

New Load.IP_12566_MOD2 bus=BT_76006_1.2 phases=1 conn=Wye kv=0.22 kw=0.043 pf=0.92 Daily=cc38_Util Model=2 status=variable vminpu=0.93 vmaxpu=1.1 
New Load.IP_12566_MOD3 bus=BT_76006_1.2 phases=1 conn=Wye kv=0.22 kw=0.043 pf=0.92 Daily=cc38_Util Model=3 status=variable vminpu=0.93 vmaxpu=1.1 

New Load.IP_12573_MOD2 bus=BT_106203_1.1 phases=1 conn=Wye kv=0.219 kw=0.088 pf=0.92 Daily=cc38_Util Model=2 status=variable vminpu=0.93 vmaxpu=1.1 
New Load.IP_12573_MOD3 bus=BT_106203_1.1 phases=1 conn=Wye kv=0.219 kw=0.088 pf=0.92 Daily=cc38_Util Model=3 status=variable vminpu=0.93 vmaxpu=1.1 

New Load.IP_12574_MOD2 bus=BT_46650_1.2 phases=1 conn=Wye kv=0.219 kw=0.088 pf=0.92 Daily=cc38_Util Model=2 status=variable vminpu=0.93 vmaxpu=1.1 
New Load.IP_12574_MOD3 bus=BT_46650_1.2 phases=1 conn=Wye kv=0.219 kw=0.088 pf=0.92 Daily=cc38_Util Model=3 status=variable vminpu=0.93 vmaxpu=1.1 

New Load.IP_12576_MOD2 bus=BT_27639_1.1 phases=1 conn=Wye kv=0.219 kw=0.101 pf=0.92 Daily=cc38_Util Model=2 status=variable vminpu=0.93 vmaxpu=1.1 
New Load.IP_12576_MOD3 bus=BT_27639_1.1 phases=1 conn=Wye kv=0.219 kw=0.101 pf=0.92 Daily=cc38_Util Model=3 status=variable vminpu=0.93 vmaxpu=1.1 

New Load.IP_12648_MOD2 bus=BT_32072_1.1 phases=1 conn=Wye kv=0.22 kw=0.043 pf=0.92 Daily=cc38_Util Model=2 status=variable vminpu=0.93 vmaxpu=1.1 
New Load.IP_12648_MOD3 bus=BT_32072_1.1 phases=1 conn=Wye kv=0.22 kw=0.043 pf=0.92 Daily=cc38_Util Model=3 status=variable vminpu=0.93 vmaxpu=1.1 

New Load.IP_12653_MOD2 bus=BT_26452_1.1 phases=1 conn=Wye kv=0.219 kw=0.088 pf=0.92 Daily=cc38_Util Model=2 status=variable vminpu=0.93 vmaxpu=1.1 
New Load.IP_12653_MOD3 bus=BT_26452_1.1 phases=1 conn=Wye kv=0.219 kw=0.088 pf=0.92 Daily=cc38_Util Model=3 status=variable vminpu=0.93 vmaxpu=1.1 

New Load.IP_12654_MOD2 bus=BT_26410_1.1 phases=1 conn=Wye kv=0.219 kw=0.088 pf=0.92 Daily=cc38_Util Model=2 status=variable vminpu=0.93 vmaxpu=1.1 
New Load.IP_12654_MOD3 bus=BT_26410_1.1 phases=1 conn=Wye kv=0.219 kw=0.088 pf=0.92 Daily=cc38_Util Model=3 status=variable vminpu=0.93 vmaxpu=1.1 

New Load.IP_12655_MOD2 bus=BT_26411_1.1 phases=1 conn=Wye kv=0.219 kw=0.088 pf=0.92 Daily=cc38_Util Model=2 status=variable vminpu=0.93 vmaxpu=1.1 
New Load.IP_12655_MOD3 bus=BT_26411_1.1 phases=1 conn=Wye kv=0.219 kw=0.088 pf=0.92 Daily=cc38_Util Model=3 status=variable vminpu=0.93 vmaxpu=1.1 

New Load.IP_12662_MOD2 bus=BT_91121_2.2 phases=1 conn=Wye kv=0.22 kw=0.043 pf=0.92 Daily=cc38_Util Model=2 status=variable vminpu=0.93 vmaxpu=1.1 
New Load.IP_12662_MOD3 bus=BT_91121_2.2 phases=1 conn=Wye kv=0.22 kw=0.043 pf=0.92 Daily=cc38_Util Model=3 status=variable vminpu=0.93 vmaxpu=1.1 

New Load.IP_12663_MOD2 bus=BT_34893_1.1 phases=1 conn=Wye kv=0.22 kw=0.043 pf=0.92 Daily=cc38_Util Model=2 status=variable vminpu=0.93 vmaxpu=1.1 
New Load.IP_12663_MOD3 bus=BT_34893_1.1 phases=1 conn=Wye kv=0.22 kw=0.043 pf=0.92 Daily=cc38_Util Model=3 status=variable vminpu=0.93 vmaxpu=1.1 

New Load.IP_12664_MOD2 bus=BT_34894_1.1 phases=1 conn=Wye kv=0.22 kw=0.043 pf=0.92 Daily=cc38_Util Model=2 status=variable vminpu=0.93 vmaxpu=1.1 
New Load.IP_12664_MOD3 bus=BT_34894_1.1 phases=1 conn=Wye kv=0.22 kw=0.043 pf=0.92 Daily=cc38_Util Model=3 status=variable vminpu=0.93 vmaxpu=1.1 

New Load.IP_12667_MOD2 bus=BT_24910_1.1 phases=1 conn=Wye kv=0.219 kw=0.043 pf=0.92 Daily=cc38_Util Model=2 status=variable vminpu=0.93 vmaxpu=1.1 
New Load.IP_12667_MOD3 bus=BT_24910_1.1 phases=1 conn=Wye kv=0.219 kw=0.043 pf=0.92 Daily=cc38_Util Model=3 status=variable vminpu=0.93 vmaxpu=1.1 

New Load.IP_12668_MOD2 bus=BT_24911_1.1 phases=1 conn=Wye kv=0.219 kw=0.043 pf=0.92 Daily=cc38_Util Model=2 status=variable vminpu=0.93 vmaxpu=1.1 
New Load.IP_12668_MOD3 bus=BT_24911_1.1 phases=1 conn=Wye kv=0.219 kw=0.043 pf=0.92 Daily=cc38_Util Model=3 status=variable vminpu=0.93 vmaxpu=1.1 

New Load.IP_12669_MOD2 bus=BT_25303_1.3 phases=1 conn=Wye kv=0.219 kw=0.043 pf=0.92 Daily=cc38_Util Model=2 status=variable vminpu=0.93 vmaxpu=1.1 
New Load.IP_12669_MOD3 bus=BT_25303_1.3 phases=1 conn=Wye kv=0.219 kw=0.043 pf=0.92 Daily=cc38_Util Model=3 status=variable vminpu=0.93 vmaxpu=1.1 

New Load.IP_12670_MOD2 bus=BT_42501_1.1 phases=1 conn=Wye kv=0.22 kw=0.043 pf=0.92 Daily=cc38_Util Model=2 status=variable vminpu=0.93 vmaxpu=1.1 
New Load.IP_12670_MOD3 bus=BT_42501_1.1 phases=1 conn=Wye kv=0.22 kw=0.043 pf=0.92 Daily=cc38_Util Model=3 status=variable vminpu=0.93 vmaxpu=1.1 

New Load.IP_12671_MOD2 bus=BT_25628_1.2 phases=1 conn=Wye kv=0.22 kw=0.043 pf=0.92 Daily=cc38_Util Model=2 status=variable vminpu=0.93 vmaxpu=1.1 
New Load.IP_12671_MOD3 bus=BT_25628_1.2 phases=1 conn=Wye kv=0.22 kw=0.043 pf=0.92 Daily=cc38_Util Model=3 status=variable vminpu=0.93 vmaxpu=1.1 

New Load.IP_12672_MOD2 bus=BT_26051_1.2 phases=1 conn=Wye kv=0.22 kw=0.043 pf=0.92 Daily=cc38_Util Model=2 status=variable vminpu=0.93 vmaxpu=1.1 
New Load.IP_12672_MOD3 bus=BT_26051_1.2 phases=1 conn=Wye kv=0.22 kw=0.043 pf=0.92 Daily=cc38_Util Model=3 status=variable vminpu=0.93 vmaxpu=1.1 

New Load.IP_12673_MOD2 bus=BT_101610_1.1 phases=1 conn=Wye kv=0.22 kw=0.043 pf=0.92 Daily=cc38_Util Model=2 status=variable vminpu=0.93 vmaxpu=1.1 
New Load.IP_12673_MOD3 bus=BT_101610_1.1 phases=1 conn=Wye kv=0.22 kw=0.043 pf=0.92 Daily=cc38_Util Model=3 status=variable vminpu=0.93 vmaxpu=1.1 

New Load.IP_12674_MOD2 bus=BT_101281_1.1 phases=1 conn=Wye kv=0.22 kw=0.043 pf=0.92 Daily=cc38_Util Model=2 status=variable vminpu=0.93 vmaxpu=1.1 
New Load.IP_12674_MOD3 bus=BT_101281_1.1 phases=1 conn=Wye kv=0.22 kw=0.043 pf=0.92 Daily=cc38_Util Model=3 status=variable vminpu=0.93 vmaxpu=1.1 

New Load.IP_12676_MOD2 bus=BT_26017_1.2 phases=1 conn=Wye kv=0.22 kw=0.043 pf=0.92 Daily=cc38_Util Model=2 status=variable vminpu=0.93 vmaxpu=1.1 
New Load.IP_12676_MOD3 bus=BT_26017_1.2 phases=1 conn=Wye kv=0.22 kw=0.043 pf=0.92 Daily=cc38_Util Model=3 status=variable vminpu=0.93 vmaxpu=1.1 

New Load.IP_12677_MOD2 bus=BT_26019_1.2 phases=1 conn=Wye kv=0.22 kw=0.043 pf=0.92 Daily=cc38_Util Model=2 status=variable vminpu=0.93 vmaxpu=1.1 
New Load.IP_12677_MOD3 bus=BT_26019_1.2 phases=1 conn=Wye kv=0.22 kw=0.043 pf=0.92 Daily=cc38_Util Model=3 status=variable vminpu=0.93 vmaxpu=1.1 

New Load.IP_12678_MOD2 bus=BT_82137_1.1 phases=1 conn=Wye kv=0.219 kw=0.043 pf=0.92 Daily=cc38_Util Model=2 status=variable vminpu=0.93 vmaxpu=1.1 
New Load.IP_12678_MOD3 bus=BT_82137_1.1 phases=1 conn=Wye kv=0.219 kw=0.043 pf=0.92 Daily=cc38_Util Model=3 status=variable vminpu=0.93 vmaxpu=1.1 

New Load.IP_12679_MOD2 bus=BT_24174_1.1 phases=1 conn=Wye kv=0.219 kw=0.043 pf=0.92 Daily=cc38_Util Model=2 status=variable vminpu=0.93 vmaxpu=1.1 
New Load.IP_12679_MOD3 bus=BT_24174_1.1 phases=1 conn=Wye kv=0.219 kw=0.043 pf=0.92 Daily=cc38_Util Model=3 status=variable vminpu=0.93 vmaxpu=1.1 

New Load.IP_12852_MOD2 bus=BT_21344_1.2 phases=1 conn=Wye kv=0.22 kw=0.043 pf=0.92 Daily=cc38_Util Model=2 status=variable vminpu=0.93 vmaxpu=1.1 
New Load.IP_12852_MOD3 bus=BT_21344_1.2 phases=1 conn=Wye kv=0.22 kw=0.043 pf=0.92 Daily=cc38_Util Model=3 status=variable vminpu=0.93 vmaxpu=1.1 

New Load.IP_13005_MOD2 bus=BT_37772_1.2 phases=1 conn=Wye kv=0.219 kw=0.073 pf=0.92 Daily=cc38_Util Model=2 status=variable vminpu=0.93 vmaxpu=1.1 
New Load.IP_13005_MOD3 bus=BT_37772_1.2 phases=1 conn=Wye kv=0.219 kw=0.073 pf=0.92 Daily=cc38_Util Model=3 status=variable vminpu=0.93 vmaxpu=1.1 

New Load.IP_13006_MOD2 bus=BT_84528_1.1 phases=1 conn=Wye kv=0.22 kw=0.043 pf=0.92 Daily=cc38_Util Model=2 status=variable vminpu=0.93 vmaxpu=1.1 
New Load.IP_13006_MOD3 bus=BT_84528_1.1 phases=1 conn=Wye kv=0.22 kw=0.043 pf=0.92 Daily=cc38_Util Model=3 status=variable vminpu=0.93 vmaxpu=1.1 

New Load.IP_13007_MOD2 bus=BT_26060_1.1 phases=1 conn=Wye kv=0.22 kw=0.043 pf=0.92 Daily=cc38_Util Model=2 status=variable vminpu=0.93 vmaxpu=1.1 
New Load.IP_13007_MOD3 bus=BT_26060_1.1 phases=1 conn=Wye kv=0.22 kw=0.043 pf=0.92 Daily=cc38_Util Model=3 status=variable vminpu=0.93 vmaxpu=1.1 

New Load.IP_13008_MOD2 bus=BT_108186_1.2 phases=1 conn=Wye kv=0.22 kw=0.043 pf=0.92 Daily=cc38_Util Model=2 status=variable vminpu=0.93 vmaxpu=1.1 
New Load.IP_13008_MOD3 bus=BT_108186_1.2 phases=1 conn=Wye kv=0.22 kw=0.043 pf=0.92 Daily=cc38_Util Model=3 status=variable vminpu=0.93 vmaxpu=1.1 

New Load.IP_13009_MOD2 bus=BT_61269_1.1 phases=1 conn=Wye kv=0.219 kw=0.043 pf=0.92 Daily=cc38_Util Model=2 status=variable vminpu=0.93 vmaxpu=1.1 
New Load.IP_13009_MOD3 bus=BT_61269_1.1 phases=1 conn=Wye kv=0.219 kw=0.043 pf=0.92 Daily=cc38_Util Model=3 status=variable vminpu=0.93 vmaxpu=1.1 

New Load.IP_13010_MOD2 bus=BT_26756_1.2 phases=1 conn=Wye kv=0.22 kw=0.043 pf=0.92 Daily=cc38_Util Model=2 status=variable vminpu=0.93 vmaxpu=1.1 
New Load.IP_13010_MOD3 bus=BT_26756_1.2 phases=1 conn=Wye kv=0.22 kw=0.043 pf=0.92 Daily=cc38_Util Model=3 status=variable vminpu=0.93 vmaxpu=1.1 

New Load.IP_13011_MOD2 bus=BT_104089_1.1 phases=1 conn=Wye kv=0.22 kw=0.043 pf=0.92 Daily=cc38_Util Model=2 status=variable vminpu=0.93 vmaxpu=1.1 
New Load.IP_13011_MOD3 bus=BT_104089_1.1 phases=1 conn=Wye kv=0.22 kw=0.043 pf=0.92 Daily=cc38_Util Model=3 status=variable vminpu=0.93 vmaxpu=1.1 

New Load.IP_13012_MOD2 bus=BT_47735_1.1 phases=1 conn=Wye kv=0.22 kw=0.043 pf=0.92 Daily=cc38_Util Model=2 status=variable vminpu=0.93 vmaxpu=1.1 
New Load.IP_13012_MOD3 bus=BT_47735_1.1 phases=1 conn=Wye kv=0.22 kw=0.043 pf=0.92 Daily=cc38_Util Model=3 status=variable vminpu=0.93 vmaxpu=1.1 

New Load.IP_13013_MOD2 bus=BT_33399_1.2 phases=1 conn=Wye kv=0.22 kw=0.043 pf=0.92 Daily=cc38_Util Model=2 status=variable vminpu=0.93 vmaxpu=1.1 
New Load.IP_13013_MOD3 bus=BT_33399_1.2 phases=1 conn=Wye kv=0.22 kw=0.043 pf=0.92 Daily=cc38_Util Model=3 status=variable vminpu=0.93 vmaxpu=1.1 

New Load.IP_13014_MOD2 bus=BT_97313_1.2 phases=1 conn=Wye kv=0.219 kw=0.043 pf=0.92 Daily=cc38_Util Model=2 status=variable vminpu=0.93 vmaxpu=1.1 
New Load.IP_13014_MOD3 bus=BT_97313_1.2 phases=1 conn=Wye kv=0.219 kw=0.043 pf=0.92 Daily=cc38_Util Model=3 status=variable vminpu=0.93 vmaxpu=1.1 

New Load.IP_13015_MOD2 bus=BT_36206_1.2 phases=1 conn=Wye kv=0.22 kw=0.043 pf=0.92 Daily=cc38_Util Model=2 status=variable vminpu=0.93 vmaxpu=1.1 
New Load.IP_13015_MOD3 bus=BT_36206_1.2 phases=1 conn=Wye kv=0.22 kw=0.043 pf=0.92 Daily=cc38_Util Model=3 status=variable vminpu=0.93 vmaxpu=1.1 

New Load.IP_13016_MOD2 bus=BT_28279_1.3 phases=1 conn=Wye kv=0.219 kw=0.088 pf=0.92 Daily=cc38_Util Model=2 status=variable vminpu=0.93 vmaxpu=1.1 
New Load.IP_13016_MOD3 bus=BT_28279_1.3 phases=1 conn=Wye kv=0.219 kw=0.088 pf=0.92 Daily=cc38_Util Model=3 status=variable vminpu=0.93 vmaxpu=1.1 

New Load.IP_13022_MOD2 bus=BT_37024_1.2 phases=1 conn=Wye kv=0.22 kw=0.043 pf=0.92 Daily=cc38_Util Model=2 status=variable vminpu=0.93 vmaxpu=1.1 
New Load.IP_13022_MOD3 bus=BT_37024_1.2 phases=1 conn=Wye kv=0.22 kw=0.043 pf=0.92 Daily=cc38_Util Model=3 status=variable vminpu=0.93 vmaxpu=1.1 

New Load.IP_13024_MOD2 bus=BT_26759_1.2 phases=1 conn=Wye kv=0.22 kw=0.043 pf=0.92 Daily=cc38_Util Model=2 status=variable vminpu=0.93 vmaxpu=1.1 
New Load.IP_13024_MOD3 bus=BT_26759_1.2 phases=1 conn=Wye kv=0.22 kw=0.043 pf=0.92 Daily=cc38_Util Model=3 status=variable vminpu=0.93 vmaxpu=1.1 

New Load.IP_13027_MOD2 bus=BT_23721_1.3 phases=1 conn=Wye kv=0.219 kw=0.088 pf=0.92 Daily=cc38_Util Model=2 status=variable vminpu=0.93 vmaxpu=1.1 
New Load.IP_13027_MOD3 bus=BT_23721_1.3 phases=1 conn=Wye kv=0.219 kw=0.088 pf=0.92 Daily=cc38_Util Model=3 status=variable vminpu=0.93 vmaxpu=1.1 

New Load.IP_13028_MOD2 bus=BT_52134_1.2 phases=1 conn=Wye kv=0.219 kw=0.088 pf=0.92 Daily=cc38_Util Model=2 status=variable vminpu=0.93 vmaxpu=1.1 
New Load.IP_13028_MOD3 bus=BT_52134_1.2 phases=1 conn=Wye kv=0.219 kw=0.088 pf=0.92 Daily=cc38_Util Model=3 status=variable vminpu=0.93 vmaxpu=1.1 

New Load.IP_13029_MOD2 bus=BT_23712_1.3 phases=1 conn=Wye kv=0.219 kw=0.101 pf=0.92 Daily=cc38_Util Model=2 status=variable vminpu=0.93 vmaxpu=1.1 
New Load.IP_13029_MOD3 bus=BT_23712_1.3 phases=1 conn=Wye kv=0.219 kw=0.101 pf=0.92 Daily=cc38_Util Model=3 status=variable vminpu=0.93 vmaxpu=1.1 

New Load.IP_13030_MOD2 bus=BT_107873_1.2 phases=1 conn=Wye kv=0.22 kw=0.043 pf=0.92 Daily=cc38_Util Model=2 status=variable vminpu=0.93 vmaxpu=1.1 
New Load.IP_13030_MOD3 bus=BT_107873_1.2 phases=1 conn=Wye kv=0.22 kw=0.043 pf=0.92 Daily=cc38_Util Model=3 status=variable vminpu=0.93 vmaxpu=1.1 

New Load.IP_13058_MOD2 bus=BT_28196_1.3 phases=1 conn=Wye kv=0.219 kw=0.088 pf=0.92 Daily=cc38_Util Model=2 status=variable vminpu=0.93 vmaxpu=1.1 
New Load.IP_13058_MOD3 bus=BT_28196_1.3 phases=1 conn=Wye kv=0.219 kw=0.088 pf=0.92 Daily=cc38_Util Model=3 status=variable vminpu=0.93 vmaxpu=1.1 

New Load.IP_13062_MOD2 bus=BT_99129_1.1 phases=1 conn=Wye kv=0.22 kw=0.043 pf=0.92 Daily=cc38_Util Model=2 status=variable vminpu=0.93 vmaxpu=1.1 
New Load.IP_13062_MOD3 bus=BT_99129_1.1 phases=1 conn=Wye kv=0.22 kw=0.043 pf=0.92 Daily=cc38_Util Model=3 status=variable vminpu=0.93 vmaxpu=1.1 

New Load.IP_13064_MOD2 bus=BT_22233_1.1 phases=1 conn=Wye kv=0.22 kw=0.043 pf=0.92 Daily=cc38_Util Model=2 status=variable vminpu=0.93 vmaxpu=1.1 
New Load.IP_13064_MOD3 bus=BT_22233_1.1 phases=1 conn=Wye kv=0.22 kw=0.043 pf=0.92 Daily=cc38_Util Model=3 status=variable vminpu=0.93 vmaxpu=1.1 

New Load.IP_13120_MOD2 bus=BT_21730_1.2 phases=1 conn=Wye kv=0.22 kw=0.043 pf=0.92 Daily=cc38_Util Model=2 status=variable vminpu=0.93 vmaxpu=1.1 
New Load.IP_13120_MOD3 bus=BT_21730_1.2 phases=1 conn=Wye kv=0.22 kw=0.043 pf=0.92 Daily=cc38_Util Model=3 status=variable vminpu=0.93 vmaxpu=1.1 

New Load.IP_13231_MOD2 bus=BT_36533_1.2 phases=1 conn=Wye kv=0.219 kw=0.088 pf=0.92 Daily=cc38_Util Model=2 status=variable vminpu=0.93 vmaxpu=1.1 
New Load.IP_13231_MOD3 bus=BT_36533_1.2 phases=1 conn=Wye kv=0.219 kw=0.088 pf=0.92 Daily=cc38_Util Model=3 status=variable vminpu=0.93 vmaxpu=1.1 

New Load.IP_13232_MOD2 bus=BT_26451_1.1 phases=1 conn=Wye kv=0.219 kw=0.043 pf=0.92 Daily=cc38_Util Model=2 status=variable vminpu=0.93 vmaxpu=1.1 
New Load.IP_13232_MOD3 bus=BT_26451_1.1 phases=1 conn=Wye kv=0.219 kw=0.043 pf=0.92 Daily=cc38_Util Model=3 status=variable vminpu=0.93 vmaxpu=1.1 

New Load.IP_13233_MOD2 bus=BT_36534_1.2 phases=1 conn=Wye kv=0.22 kw=0.088 pf=0.92 Daily=cc38_Util Model=2 status=variable vminpu=0.93 vmaxpu=1.1 
New Load.IP_13233_MOD3 bus=BT_36534_1.2 phases=1 conn=Wye kv=0.22 kw=0.088 pf=0.92 Daily=cc38_Util Model=3 status=variable vminpu=0.93 vmaxpu=1.1 

New Load.IP_13307_MOD2 bus=BT_31798_1.2 phases=1 conn=Wye kv=0.219 kw=0.088 pf=0.92 Daily=cc38_Util Model=2 status=variable vminpu=0.93 vmaxpu=1.1 
New Load.IP_13307_MOD3 bus=BT_31798_1.2 phases=1 conn=Wye kv=0.219 kw=0.088 pf=0.92 Daily=cc38_Util Model=3 status=variable vminpu=0.93 vmaxpu=1.1 

New Load.IP_13529_MOD2 bus=BT_30737_1.2 phases=1 conn=Wye kv=0.22 kw=0.043 pf=0.92 Daily=cc38_Util Model=2 status=variable vminpu=0.93 vmaxpu=1.1 
New Load.IP_13529_MOD3 bus=BT_30737_1.2 phases=1 conn=Wye kv=0.22 kw=0.043 pf=0.92 Daily=cc38_Util Model=3 status=variable vminpu=0.93 vmaxpu=1.1 

New Load.IP_1373_MOD2 bus=BT_105135_1.2 phases=1 conn=Wye kv=0.22 kw=0.043 pf=0.92 Daily=cc38_Util Model=2 status=variable vminpu=0.93 vmaxpu=1.1 
New Load.IP_1373_MOD3 bus=BT_105135_1.2 phases=1 conn=Wye kv=0.22 kw=0.043 pf=0.92 Daily=cc38_Util Model=3 status=variable vminpu=0.93 vmaxpu=1.1 

New Load.IP_13761_MOD2 bus=BT_26036_1.2 phases=1 conn=Wye kv=0.219 kw=0.043 pf=0.92 Daily=cc38_Util Model=2 status=variable vminpu=0.93 vmaxpu=1.1 
New Load.IP_13761_MOD3 bus=BT_26036_1.2 phases=1 conn=Wye kv=0.219 kw=0.043 pf=0.92 Daily=cc38_Util Model=3 status=variable vminpu=0.93 vmaxpu=1.1 

New Load.IP_13809_MOD2 bus=BT_28243_1.2 phases=1 conn=Wye kv=0.219 kw=0.088 pf=0.92 Daily=cc38_Util Model=2 status=variable vminpu=0.93 vmaxpu=1.1 
New Load.IP_13809_MOD3 bus=BT_28243_1.2 phases=1 conn=Wye kv=0.219 kw=0.088 pf=0.92 Daily=cc38_Util Model=3 status=variable vminpu=0.93 vmaxpu=1.1 

New Load.IP_13810_MOD2 bus=BT_23743_1.1 phases=1 conn=Wye kv=0.219 kw=0.088 pf=0.92 Daily=cc38_Util Model=2 status=variable vminpu=0.93 vmaxpu=1.1 
New Load.IP_13810_MOD3 bus=BT_23743_1.1 phases=1 conn=Wye kv=0.219 kw=0.088 pf=0.92 Daily=cc38_Util Model=3 status=variable vminpu=0.93 vmaxpu=1.1 

New Load.IP_13811_MOD2 bus=BT_28224_1.1 phases=1 conn=Wye kv=0.219 kw=0.088 pf=0.92 Daily=cc38_Util Model=2 status=variable vminpu=0.93 vmaxpu=1.1 
New Load.IP_13811_MOD3 bus=BT_28224_1.1 phases=1 conn=Wye kv=0.219 kw=0.088 pf=0.92 Daily=cc38_Util Model=3 status=variable vminpu=0.93 vmaxpu=1.1 

New Load.IP_13812_MOD2 bus=BT_98073_1.1 phases=1 conn=Wye kv=0.219 kw=0.088 pf=0.92 Daily=cc38_Util Model=2 status=variable vminpu=0.93 vmaxpu=1.1 
New Load.IP_13812_MOD3 bus=BT_98073_1.1 phases=1 conn=Wye kv=0.219 kw=0.088 pf=0.92 Daily=cc38_Util Model=3 status=variable vminpu=0.93 vmaxpu=1.1 

New Load.IP_14113_MOD2 bus=BT_97824_1.2 phases=1 conn=Wye kv=0.22 kw=0.043 pf=0.92 Daily=cc38_Util Model=2 status=variable vminpu=0.93 vmaxpu=1.1 
New Load.IP_14113_MOD3 bus=BT_97824_1.2 phases=1 conn=Wye kv=0.22 kw=0.043 pf=0.92 Daily=cc38_Util Model=3 status=variable vminpu=0.93 vmaxpu=1.1 

New Load.IP_14114_MOD2 bus=BT_34903_1.1 phases=1 conn=Wye kv=0.22 kw=0.043 pf=0.92 Daily=cc38_Util Model=2 status=variable vminpu=0.93 vmaxpu=1.1 
New Load.IP_14114_MOD3 bus=BT_34903_1.1 phases=1 conn=Wye kv=0.22 kw=0.043 pf=0.92 Daily=cc38_Util Model=3 status=variable vminpu=0.93 vmaxpu=1.1 

New Load.IP_14218_MOD2 bus=BT_22216_1.2 phases=1 conn=Wye kv=0.22 kw=0.043 pf=0.92 Daily=cc38_Util Model=2 status=variable vminpu=0.93 vmaxpu=1.1 
New Load.IP_14218_MOD3 bus=BT_22216_1.2 phases=1 conn=Wye kv=0.22 kw=0.043 pf=0.92 Daily=cc38_Util Model=3 status=variable vminpu=0.93 vmaxpu=1.1 

New Load.IP_14283_MOD2 bus=BT_90197_1.2 phases=1 conn=Wye kv=0.22 kw=0.043 pf=0.92 Daily=cc38_Util Model=2 status=variable vminpu=0.93 vmaxpu=1.1 
New Load.IP_14283_MOD3 bus=BT_90197_1.2 phases=1 conn=Wye kv=0.22 kw=0.043 pf=0.92 Daily=cc38_Util Model=3 status=variable vminpu=0.93 vmaxpu=1.1 

New Load.IP_14284_MOD2 bus=BT_90196_1.2 phases=1 conn=Wye kv=0.22 kw=0.043 pf=0.92 Daily=cc38_Util Model=2 status=variable vminpu=0.93 vmaxpu=1.1 
New Load.IP_14284_MOD3 bus=BT_90196_1.2 phases=1 conn=Wye kv=0.22 kw=0.043 pf=0.92 Daily=cc38_Util Model=3 status=variable vminpu=0.93 vmaxpu=1.1 

New Load.IP_14285_MOD2 bus=BT_59395_1.1 phases=1 conn=Wye kv=0.22 kw=0.043 pf=0.92 Daily=cc38_Util Model=2 status=variable vminpu=0.93 vmaxpu=1.1 
New Load.IP_14285_MOD3 bus=BT_59395_1.1 phases=1 conn=Wye kv=0.22 kw=0.043 pf=0.92 Daily=cc38_Util Model=3 status=variable vminpu=0.93 vmaxpu=1.1 

New Load.IP_14286_MOD2 bus=BT_101685_1.1 phases=1 conn=Wye kv=0.22 kw=0.043 pf=0.92 Daily=cc38_Util Model=2 status=variable vminpu=0.93 vmaxpu=1.1 
New Load.IP_14286_MOD3 bus=BT_101685_1.1 phases=1 conn=Wye kv=0.22 kw=0.043 pf=0.92 Daily=cc38_Util Model=3 status=variable vminpu=0.93 vmaxpu=1.1 

New Load.IP_14288_MOD2 bus=BT_111041_1.1 phases=1 conn=Wye kv=0.219 kw=0.088 pf=0.92 Daily=cc38_Util Model=2 status=variable vminpu=0.93 vmaxpu=1.1 
New Load.IP_14288_MOD3 bus=BT_111041_1.1 phases=1 conn=Wye kv=0.219 kw=0.088 pf=0.92 Daily=cc38_Util Model=3 status=variable vminpu=0.93 vmaxpu=1.1 

New Load.IP_1506_MOD2 bus=BT_30739_1.2 phases=1 conn=Wye kv=0.22 kw=0.07 pf=0.92 Daily=cc38_Util Model=2 status=variable vminpu=0.93 vmaxpu=1.1 
New Load.IP_1506_MOD3 bus=BT_30739_1.2 phases=1 conn=Wye kv=0.22 kw=0.07 pf=0.92 Daily=cc38_Util Model=3 status=variable vminpu=0.93 vmaxpu=1.1 

New Load.IP_15801_MOD2 bus=BT_43371_1.2 phases=1 conn=Wye kv=0.22 kw=0.073 pf=0.92 Daily=cc38_Util Model=2 status=variable vminpu=0.93 vmaxpu=1.1 
New Load.IP_15801_MOD3 bus=BT_43371_1.2 phases=1 conn=Wye kv=0.22 kw=0.073 pf=0.92 Daily=cc38_Util Model=3 status=variable vminpu=0.93 vmaxpu=1.1 

New Load.IP_16004_MOD2 bus=BT_27219_1.1 phases=1 conn=Wye kv=0.219 kw=0.06 pf=0.92 Daily=cc38_Util Model=2 status=variable vminpu=0.93 vmaxpu=1.1 
New Load.IP_16004_MOD3 bus=BT_27219_1.1 phases=1 conn=Wye kv=0.219 kw=0.06 pf=0.92 Daily=cc38_Util Model=3 status=variable vminpu=0.93 vmaxpu=1.1 

New Load.IP_1699_MOD2 bus=BT_96758_1.1 phases=1 conn=Wye kv=0.219 kw=0.088 pf=0.92 Daily=cc38_Util Model=2 status=variable vminpu=0.93 vmaxpu=1.1 
New Load.IP_1699_MOD3 bus=BT_96758_1.1 phases=1 conn=Wye kv=0.219 kw=0.088 pf=0.92 Daily=cc38_Util Model=3 status=variable vminpu=0.93 vmaxpu=1.1 

New Load.IP_1709_MOD2 bus=BT_28193_1.1 phases=1 conn=Wye kv=0.219 kw=0.07 pf=0.92 Daily=cc38_Util Model=2 status=variable vminpu=0.93 vmaxpu=1.1 
New Load.IP_1709_MOD3 bus=BT_28193_1.1 phases=1 conn=Wye kv=0.219 kw=0.07 pf=0.92 Daily=cc38_Util Model=3 status=variable vminpu=0.93 vmaxpu=1.1 

New Load.IP_17569_MOD2 bus=BT_100574_1.1 phases=1 conn=Wye kv=0.22 kw=0.073 pf=0.92 Daily=cc38_Util Model=2 status=variable vminpu=0.93 vmaxpu=1.1 
New Load.IP_17569_MOD3 bus=BT_100574_1.1 phases=1 conn=Wye kv=0.22 kw=0.073 pf=0.92 Daily=cc38_Util Model=3 status=variable vminpu=0.93 vmaxpu=1.1 

New Load.IP_17570_MOD2 bus=BT_44211_1.1 phases=1 conn=Wye kv=0.22 kw=0.043 pf=0.92 Daily=cc38_Util Model=2 status=variable vminpu=0.93 vmaxpu=1.1 
New Load.IP_17570_MOD3 bus=BT_44211_1.1 phases=1 conn=Wye kv=0.22 kw=0.043 pf=0.92 Daily=cc38_Util Model=3 status=variable vminpu=0.93 vmaxpu=1.1 

New Load.IP_17571_MOD2 bus=BT_54411_1.1 phases=1 conn=Wye kv=0.22 kw=0.043 pf=0.92 Daily=cc38_Util Model=2 status=variable vminpu=0.93 vmaxpu=1.1 
New Load.IP_17571_MOD3 bus=BT_54411_1.1 phases=1 conn=Wye kv=0.22 kw=0.043 pf=0.92 Daily=cc38_Util Model=3 status=variable vminpu=0.93 vmaxpu=1.1 

New Load.IP_17572_MOD2 bus=BT_110349_1.2 phases=1 conn=Wye kv=0.219 kw=0.043 pf=0.92 Daily=cc38_Util Model=2 status=variable vminpu=0.93 vmaxpu=1.1 
New Load.IP_17572_MOD3 bus=BT_110349_1.2 phases=1 conn=Wye kv=0.219 kw=0.043 pf=0.92 Daily=cc38_Util Model=3 status=variable vminpu=0.93 vmaxpu=1.1 

New Load.IP_17573_MOD2 bus=BT_110350_1.2 phases=1 conn=Wye kv=0.219 kw=0.043 pf=0.92 Daily=cc38_Util Model=2 status=variable vminpu=0.93 vmaxpu=1.1 
New Load.IP_17573_MOD3 bus=BT_110350_1.2 phases=1 conn=Wye kv=0.219 kw=0.043 pf=0.92 Daily=cc38_Util Model=3 status=variable vminpu=0.93 vmaxpu=1.1 

New Load.IP_17575_MOD2 bus=BT_28263_1.3 phases=1 conn=Wye kv=0.219 kw=0.073 pf=0.92 Daily=cc38_Util Model=2 status=variable vminpu=0.93 vmaxpu=1.1 
New Load.IP_17575_MOD3 bus=BT_28263_1.3 phases=1 conn=Wye kv=0.219 kw=0.073 pf=0.92 Daily=cc38_Util Model=3 status=variable vminpu=0.93 vmaxpu=1.1 

New Load.IP_17581_MOD2 bus=BT_32129_1.1 phases=1 conn=Wye kv=0.22 kw=0.043 pf=0.92 Daily=cc38_Util Model=2 status=variable vminpu=0.93 vmaxpu=1.1 
New Load.IP_17581_MOD3 bus=BT_32129_1.1 phases=1 conn=Wye kv=0.22 kw=0.043 pf=0.92 Daily=cc38_Util Model=3 status=variable vminpu=0.93 vmaxpu=1.1 

New Load.IP_17582_MOD2 bus=BT_26404_1.1 phases=1 conn=Wye kv=0.219 kw=0.088 pf=0.92 Daily=cc38_Util Model=2 status=variable vminpu=0.93 vmaxpu=1.1 
New Load.IP_17582_MOD3 bus=BT_26404_1.1 phases=1 conn=Wye kv=0.219 kw=0.088 pf=0.92 Daily=cc38_Util Model=3 status=variable vminpu=0.93 vmaxpu=1.1 

...